Version 4
SHEET 1 880 680
WIRE -304 112 -320 112
WIRE -144 112 -304 112
WIRE -80 112 -144 112
WIRE 16 112 -80 112
WIRE 48 112 16 112
WIRE 224 112 144 112
WIRE 272 112 224 112
WIRE 352 112 336 112
WIRE 432 112 352 112
WIRE 16 176 16 112
WIRE 64 176 64 160
WIRE 64 176 16 176
WIRE -144 192 -144 112
WIRE 16 192 16 176
WIRE 352 192 352 176
WIRE -304 240 -304 192
WIRE -48 240 -80 240
WIRE -80 320 -80 304
WIRE -80 320 -160 320
WIRE -80 336 -80 320
WIRE 224 336 224 192
WIRE 16 352 16 288
WIRE 128 352 16 352
WIRE 16 368 16 352
WIRE -48 416 -80 416
WIRE 16 496 16 464
FLAG 224 336 0
FLAG 352 192 0
FLAG 432 192 0
FLAG -304 240 0
FLAG 16 496 0
FLAG -160 400 0
FLAG -80 112 vcc
FLAG 128 288 vcc
SYMBOL ind 208 96 R0
SYMATTR InstName L1
SYMATTR Value 150µ
SYMBOL res 416 96 R0
SYMATTR InstName R1
SYMATTR Value 50
SYMBOL cap 336 112 R0
SYMATTR InstName C1
SYMATTR Value 20µ
SYMBOL voltage -304 96 R0
WINDOW 123 0 0 Left 0
WINDOW 39 0 0 Left 0
SYMATTR InstName V1
SYMATTR Value 8
SYMBOL pmos 144 160 M270
SYMATTR InstName M1
SYMATTR Value FQB11P06
SYMBOL pnp -48 288 M180
SYMATTR InstName Q1
SYMATTR Value 2N2907
SYMBOL npn -48 368 R0
SYMATTR InstName Q2
SYMATTR Value 2N2222
SYMBOL voltage -160 304 R0
WINDOW 3 -339 97 Left 0
WINDOW 123 0 0 Left 0
WINDOW 39 0 0 Left 0
SYMATTR InstName V2
SYMATTR Value PULSE(0 8 0 1n 1n 1u 2u)
SYMBOL diode 336 96 R90
WINDOW 0 0 32 VBottom 0
WINDOW 3 32 32 VTop 0
SYMATTR InstName D1
SYMBOL cap 112 288 R0
SYMATTR InstName C2
SYMATTR Value 1.3n
SYMBOL pnp -80 288 R180
SYMATTR InstName Q3
SYMATTR Value 2N2907
TEXT -392 344 Left 0 !.tran 0 3.01m 3m
TEXT -136 -48 Left 0 !.MODEL SW VSWITCH (RON = 1u, ROFF = 10MEG, VON = 2, VOFF = 0)
