Version 4
SHEET 1 1716 796
WIRE 1104 -368 -528 -368
WIRE 848 -304 -512 -304
WIRE 368 -176 352 -176
WIRE 528 -176 368 -176
WIRE 720 -176 528 -176
WIRE 848 -176 848 -304
WIRE 848 -176 816 -176
WIRE 896 -176 848 -176
WIRE 944 -176 896 -176
WIRE 1024 -176 1008 -176
WIRE 1104 -176 1104 -368
WIRE 1104 -176 1024 -176
WIRE -352 -128 -384 -128
WIRE 736 -112 736 -128
WIRE 736 -112 688 -112
WIRE -512 -96 -512 -304
WIRE -416 -96 -432 -96
WIRE -112 -96 -144 -96
WIRE -32 -96 -48 -96
WIRE 176 -96 176 -128
WIRE 176 -96 144 -96
WIRE 192 -96 176 -96
WIRE 528 -96 528 -176
WIRE 560 -96 528 -96
WIRE 688 -96 688 -112
WIRE 688 -96 656 -96
WIRE 1024 -96 1024 -112
WIRE 368 -48 368 -96
WIRE 528 -48 528 -96
WIRE 32 -32 32 -160
WIRE 64 -32 32 -32
WIRE -416 -16 -416 -96
WIRE -416 -16 -432 -16
WIRE -384 -16 -384 -128
WIRE -384 -16 -416 -16
WIRE -352 -16 -384 -16
WIRE -272 -16 -272 -128
WIRE -240 -16 -272 -16
WIRE -144 -16 -144 -96
WIRE -144 -16 -160 -16
WIRE -128 -16 -144 -16
WIRE 144 -16 128 -16
WIRE 176 -16 144 -16
WIRE 192 -16 192 -96
WIRE -272 0 -272 -16
WIRE -272 0 -288 0
WIRE -32 0 -32 -96
WIRE -32 0 -64 0
WIRE 32 0 -32 0
WIRE 64 0 32 0
WIRE -352 16 -384 16
WIRE -128 16 -160 16
WIRE 176 16 176 -16
WIRE 208 16 176 16
WIRE 608 32 608 -32
WIRE 608 32 528 32
WIRE 896 48 896 -96
WIRE -384 64 -384 16
WIRE -160 64 -160 16
WIRE 192 64 160 64
WIRE 208 64 192 64
WIRE 352 64 320 64
WIRE 688 64 688 -96
WIRE 352 80 352 64
WIRE 464 80 432 80
WIRE 32 96 32 0
WIRE 64 96 32 96
WIRE 160 112 160 64
WIRE 160 112 128 112
WIRE 608 112 608 32
WIRE 624 112 608 112
WIRE 64 128 32 128
WIRE 208 144 208 96
WIRE 528 176 528 128
WIRE -112 208 -144 208
WIRE 0 208 -32 208
WIRE 32 208 32 128
WIRE 32 208 0 208
WIRE 688 208 688 160
WIRE 0 224 0 208
WIRE -144 256 -144 208
WIRE 0 336 0 304
FLAG -96 -32 vcc
FLAG -320 -32 vcc
FLAG -416 336 0
FLAG -512 336 0
FLAG -512 256 vcc
FLAG -416 256 vee
FLAG -96 32 vee
FLAG -320 32 vee
FLAG -160 64 0
FLAG 896 48 0
FLAG 1024 -96 0
FLAG 1104 -96 0
FLAG 368 -48 0
FLAG 688 208 0
FLAG 528 176 0
FLAG 96 16 0
FLAG 96 144 0
FLAG -320 336 0
FLAG -320 256 vdd
FLAG 96 -48 vdd
FLAG 96 80 vdd
FLAG 208 144 0
FLAG -144 336 0
FLAG 0 336 0
FLAG -144 208 vh
FLAG 32 -160 vh
FLAG 176 -128 vdd
FLAG -384 64 0
SYMBOL Opamps\\LT1632 -96 -64 R0
SYMATTR InstName U1
SYMBOL Opamps\\LT1632 -320 -64 R0
SYMATTR InstName U2
SYMBOL voltage -512 240 R0
WINDOW 123 0 0 Left 0
WINDOW 39 0 0 Left 0
SYMATTR InstName V1
SYMATTR Value 15
SYMBOL voltage -416 240 R0
WINDOW 123 0 0 Left 0
WINDOW 39 0 0 Left 0
SYMATTR InstName V2
SYMATTR Value -15
SYMBOL res -256 -144 R90
WINDOW 0 0 56 VBottom 0
WINDOW 3 32 56 VTop 0
SYMATTR InstName R1
SYMATTR Value 5k
SYMBOL res -144 -32 R90
WINDOW 0 0 56 VBottom 0
WINDOW 3 32 56 VTop 0
SYMATTR InstName R5
SYMATTR Value 10k
SYMBOL cap -48 -112 R90
WINDOW 0 0 32 VBottom 0
WINDOW 3 32 32 VTop 0
SYMATTR InstName C1
SYMATTR Value 10n
SYMBOL ind 880 -192 R0
SYMATTR InstName L1
SYMATTR Value 100µ
SYMBOL res 1088 -192 R0
SYMATTR InstName R6
SYMATTR Value 20
SYMBOL cap 1008 -176 R0
SYMATTR InstName C2
SYMATTR Value 14µ
SYMBOL voltage 368 -192 R0
WINDOW 123 0 0 Left 0
WINDOW 39 0 0 Left 0
SYMATTR InstName V3
SYMATTR Value 10
SYMBOL pmos 816 -128 M270
SYMATTR InstName M1
SYMATTR Value FQB11P06
SYMBOL diode 1008 -192 R90
WINDOW 0 0 32 VBottom 0
WINDOW 3 32 32 VTop 0
SYMATTR InstName D1
SYMBOL npn 560 -32 R270
SYMATTR InstName Q1
SYMATTR Value 2N3904
SYMBOL pnp 624 160 M180
SYMATTR InstName Q2
SYMATTR Value 2N3906
SYMBOL Comparators\\LT1721 96 48 R0
SYMATTR InstName U3
SYMBOL Comparators\\LT1721 96 -80 R0
SYMATTR InstName U4
SYMBOL npn 464 32 R0
SYMATTR InstName Q3
SYMBOL res 512 -64 R0
SYMATTR InstName R7
SYMATTR Value 2k
SYMBOL res 448 64 R90
WINDOW 0 0 56 VBottom 0
WINDOW 3 32 56 VTop 0
SYMATTR InstName R8
SYMATTR Value 64k
SYMBOL voltage -320 240 R0
WINDOW 123 0 0 Left 0
WINDOW 39 0 0 Left 0
SYMATTR InstName V4
SYMATTR Value 5
SYMBOL Digital\\srflop 256 -32 R0
SYMATTR InstName A1
SYMATTR SpiceLine Vhigh=5V
SYMBOL voltage -144 240 R0
WINDOW 123 0 0 Left 0
WINDOW 39 0 0 Left 0
SYMATTR InstName V6
SYMATTR Value 1.1
SYMBOL res -16 208 R0
SYMATTR InstName R9
SYMATTR Value 8.1k
SYMBOL res -16 192 R90
WINDOW 0 0 56 VBottom 0
WINDOW 3 32 56 VTop 0
SYMATTR InstName R10
SYMATTR Value 1.9k
SYMBOL res 128 -112 R0
SYMATTR InstName R13
SYMATTR Value 3k
SYMBOL res 176 -32 R0
SYMATTR InstName R14
SYMATTR Value 3k
SYMBOL res -416 -112 R90
WINDOW 0 0 56 VBottom 0
WINDOW 3 32 56 VTop 0
SYMATTR InstName R3
SYMATTR Value 5k
TEXT -488 136 Left 0 !.tran 0 2m 2u startup
