Version 4
SHEET 1 880 680
WIRE 96 -16 48 -16
WIRE 48 64 48 -16
WIRE 128 64 96 64
WIRE 128 80 128 64
WIRE 32 112 -32 112
WIRE 144 112 112 112
WIRE 240 112 144 112
WIRE 352 112 304 112
WIRE 432 112 352 112
WIRE 352 192 352 176
FLAG 144 192 0
FLAG 352 192 0
FLAG 432 192 0
FLAG -32 192 0
FLAG 128 80 0
SYMBOL ind 128 96 R0
SYMATTR InstName L1
SYMATTR Value 150µ
SYMBOL res 416 96 R0
SYMATTR InstName R1
SYMATTR Value 50
SYMBOL cap 336 112 R0
SYMATTR InstName C1
SYMATTR Value 20µ
SYMBOL diode 304 96 R90
WINDOW 0 0 32 VBottom 0
WINDOW 3 32 32 VTop 0
SYMATTR InstName D1
SYMBOL voltage -32 96 R0
WINDOW 123 0 0 Left 0
WINDOW 39 0 0 Left 0
SYMATTR InstName V1
SYMATTR Value 75
SYMBOL voltage 96 -32 R0
WINDOW 123 0 0 Left 0
WINDOW 39 0 0 Left 0
SYMATTR InstName V2
SYMATTR Value PULSE(0 5 0 1n 1n 4u 10u)
SYMBOL sw 128 112 R90
SYMATTR InstName S1
TEXT -64 224 Left 0 !.tran 0 10.1m 0m
TEXT -136 -48 Left 0 !.MODEL SW VSWITCH (RON = 1u, ROFF = 10MEG, VON = 2, VOFF = 0)
